version 2
run Default-0-20200122-11:58:06-6380
attr configname Default
attr datetime 20200122-11:58:06
attr experiment Default
attr inifile omnetpp.ini
attr iterationvars ""
attr iterationvarsf ""
attr measurement ""
attr network CommExample
attr processid 6380
attr repetition 0
attr replication #0
attr resultdir results
attr runnumber 0
attr seedset 0
param *.playgroundSizeX 2500m
param *.playgroundSizeY 2500m
param *.playgroundSizeZ 50m
param *.annotations.draw true
param *.obstacles.obstacles "xmldoc(\"config.xml\", \"//AnalogueModel[@type='SimpleObstacleShadowing']/obstacles\")"
param *.manager.updateInterval 1s
param *.manager.host "\"localhost\""
param *.manager.port 9999
param *.manager.autoShutdown true
param *.manager.launchConfig "xmldoc(\"straight.launchd.xml\")"
param *.rsu[0].mobility.x 2000
param *.rsu[0].mobility.y 2000
param *.rsu[0].mobility.z 3
param *.rsu[*].applType "\"MyRSU\""
param *.rsu[*].appl.headerLength "80 bit"
param *.rsu[*].appl.sendBeacons false
param *.rsu[*].appl.dataOnSch false
param *.rsu[*].appl.beaconInterval 1s
param *.rsu[*].appl.beaconUserPriority 7
param *.rsu[*].appl.dataUserPriority 5
param *.rsu[*].nic.phy80211p.antennaOffsetZ "0 m"
param *.connectionManager.sendDirect true
param *.connectionManager.maxInterfDist 2600m
param *.connectionManager.drawMaxIntfDist false
param *.**.nic.mac1609_4.useServiceChannel true
param *.**.nic.mac1609_4.txPower 20mW
param *.**.nic.mac1609_4.bitrate 6Mbps
param *.**.nic.phy80211p.minPowerLevel -110dBm
param *.**.nic.phy80211p.useNoiseFloor true
param *.**.nic.phy80211p.noiseFloor -98dBm
param *.**.nic.phy80211p.decider "xmldoc(\"config.xml\")"
param *.**.nic.phy80211p.analogueModels "xmldoc(\"config.xml\")"
param *.**.nic.phy80211p.usePropagationDelay true
param *.**.nic.phy80211p.antenna "xmldoc(\"antenna.xml\", \"/root/Antenna[@id='monopole']\")"
param *.node[*].nic.phy80211p.antennaOffsetY "0 m"
param *.node[*].nic.phy80211p.antennaOffsetZ "1.895 m"
param *.node[*].applType "\"MyVehicle\""
param *.node[*].appl.headerLength "80 bit"
param *.node[*].appl.sendBeacons false
param *.node[*].appl.dataOnSch false
param *.node[*].appl.beaconInterval 1s
param *.node[*].veinsmobility.x 0
param *.node[*].veinsmobility.y 0
param *.node[*].veinsmobility.z 0
param *.node[*].veinsmobility.setHostSpeed false
param *.node[*0].veinsmobility.accidentCount 1
param *.node[*0].veinsmobility.accidentStart 73s
param *.node[*0].veinsmobility.accidentDuration 50s

vector 0 CommExample.node[0].veinsmobility posx ETV
vector 1 CommExample.node[0].veinsmobility posy ETV
vector 2 CommExample.node[0].veinsmobility speed ETV
vector 3 CommExample.node[0].veinsmobility acceleration ETV
vector 4 CommExample.node[0].veinsmobility co2emission ETV
4	156	3	3.505111209305
4	224	4	4.3184592592487
4	292	5	4.8606108000201
4	360	6	6.7614686765561
4	428	7	6.6813277514485
4	496	8	6.091219189695
4	564	9	0.973
4	632	10	3.9941780741064
4	700	11	0.973
4	768	12	1.8282974765801
4	836	13	3.2288405874539
4	904	14	1.7079531708734
4	972	15	2.6636200346705
4	1040	16	0.973
4	1108	17	6.1863408669398
4	1176	18	0.973
4	1244	19	5.3541953875724
4	1312	20	1.4371258745193
4	1380	21	1.507967690826
4	1448	22	0.973
4	1516	23	1.8156030950316
4	1584	24	3.290443293741
4	1652	25	2.1892430196363
4	1735	26	1.5286077605951
4	1818	27	2.8116983466719
4	1901	28	0.973
4	1975	29	2.3148367545368
4	2049	30	5.8288094570185
4	2123	31	0.973
4	2197	32	3.2592105246642
4	2271	33	0.973
4	2345	34	5.170749423747
4	2419	35	0.973
4	2493	36	0.973
4	2567	37	1.3285631699996
4	2641	38	2.737256564183
4	2715	39	5.1604037922805
4	2789	40	0.973
4	2872	41	1.9008799599313
4	2955	42	1.3989473421937
4	3038	43	4.3633493626725
4	3121	44	0.973
4	3204	45	1.9027822348161
4	3287	46	3.578448704132
4	3370	47	1.6709173835537
4	3453	48	0.973
4	3536	49	2.400922656458
4	3619	50	4.7886653475054
4	3702	51	0.973
4	3785	52	2.31071527501
4	3868	53	2.2141529294532
4	3951	54	4.1744683010564
4	4034	55	0.973
4	4117	56	0.973
4	4200	57	2.7744074234518
4	4283	58	3.0721783493412
4	4366	59	4.0762015179622
4	4449	60	0.973
4	4532	61	1.6764607659776
4	4615	62	3.0075266153848
4	4698	63	2.384358139988
4	4781	64	0.973
4	4864	65	2.0922242596647
4	4947	66	3.3001480777216
4	5030	67	3.1699313732117
4	5113	68	0.973
4	5196	69	4.150655269492
4	5279	70	2.6081774068707
4	5362	71	0.973
4	5445	72	0.973
4	5528	73	4.3167312567501
4	5612	74	0.973
4	5695	75	0.973
4	5778	76	0.973
4	5861	77	0.973
4	5944	78	0.973
4	6027	79	0.973
4	6110	80	0.973
4	6193	81	0.973
4	6276	82	0.973
4	6359	83	0.973
4	6442	84	0.973
4	6525	85	0.973
4	6608	86	0.973
4	6691	87	0.973
4	6774	88	0.973
4	6857	89	0.973
4	6940	90	0.973
4	7023	91	0.973
4	7106	92	0.973
4	7189	93	0.973
4	7272	94	0.973
4	7355	95	0.973
4	7438	96	0.973
4	7521	97	0.973
4	7604	98	0.973
4	7687	99	0.973
4	7770	100	0.973
4	7853	101	0.973
4	7936	102	0.973
4	8019	103	0.973
4	8102	104	0.973
4	8185	105	0.973
4	8268	106	0.973
4	8351	107	0.973
4	8434	108	0.973
4	8517	109	0.973
4	8600	110	0.973
4	8683	111	0.973
4	8766	112	0.973
4	8849	113	0.973
4	8932	114	0.973
4	9015	115	0.973
4	9098	116	0.973
4	9181	117	0.973
4	9264	118	0.973
4	9347	119	0.973
4	9430	120	0.973
4	9513	121	0.973
4	9596	122	0.973
4	9679	123	0.973
4	9763	124	3.185039280494
4	9846	125	3.663245059844
4	9929	126	4.7907687817708
4	10012	127	7.3326327076966
4	10095	128	10.042938287523
4	10178	129	3.654737932042
4	10261	130	4.8571094722084
4	10344	131	0.973
3	156	3	2.1107330754166
3	224	4	1.9272159525426
3	292	5	1.7336013838649
3	360	6	2.0958549444331
3	428	7	1.7130815702258
3	496	8	1.3154085608991
3	564	9	-0.45355283981189
3	632	10	0.6353954107035
3	700	11	-0.2998633494135
3	768	12	-0.033495628042147
3	836	13	0.39226861030329
3	904	14	-0.079808252630755
3	972	15	0.21007890708279
3	1040	16	-0.89135759475175
3	1108	17	1.2525900390465
3	1176	18	-1.360424682498
3	1244	19	1.0365097043104
3	1312	20	-0.16617784020491
3	1380	21	-0.14133538550232
3	1448	22	-0.47108988265973
3	1516	23	-0.03066553955432
3	1584	24	0.42491070739925
3	1652	25	0.073376625194214
3	1735	26	-0.13210108852945
3	1818	27	0.26288965588901
3	1901	28	-0.79921776009724
3	1975	29	0.13427679659799
3	2049	30	1.147564065177
3	2123	31	-0.39954015437979
3	2197	32	0.37540029699448
3	2271	33	-0.84156386938412
3	2345	34	0.94193021615501
3	2419	35	-0.52203470736276
3	2493	36	-0.69656745821703
3	2567	37	-0.18680296721868
3	2641	38	0.26849759614561
3	2715	39	0.9567089691991
3	2789	40	-1.0944920517504
3	2872	41	-0.0001126587158069
3	2955	42	-0.16279663774185
3	3038	43	0.75751545431558
3	3121	44	-0.4883257857291
3	3204	45	-0.0026282829931006
3	3287	46	0.50914708455093
3	3370	47	-0.088497176533565
3	3453	48	-0.39007754274644
3	3536	49	0.15247446298599
3	3619	50	0.84090766485315
3	3702	51	-0.90353734174278
3	3785	52	0.12106745189521
3	3868	53	0.086851838626899
3	3951	54	0.65799975860864
3	4034	55	-0.591029914096
3	4117	56	-0.61094353557564
3	4200	57	0.27907994727138
3	4283	58	0.3551509383833
3	4366	59	0.62391108262818
3	4449	60	-0.46313150203787
3	4532	61	-0.088407722418196
3	4615	62	0.31356721697375
3	4698	63	0.11733490030747
3	4781	64	-0.88185201294255
3	4864	65	0.055973262875341
3	4947	66	0.42115176294465
3	5030	67	0.35939996887464
3	5113	68	-0.52782538742758
3	5196	69	0.6498236625921
3	5279	70	0.17464256286621
3	5362	71	-0.45802680915222
3	5445	72	-0.44024174509104
3	5528	73	0.70194095559418
3	5612	74	-6
3	5695	75	-6
3	5778	76	-1.6654877043189
3	5861	77	0
3	5944	78	0
3	6027	79	0
3	6110	80	0
3	6193	81	0
3	6276	82	0
3	6359	83	0
3	6442	84	0
3	6525	85	0
3	6608	86	0
3	6691	87	0
3	6774	88	0
3	6857	89	0
3	6940	90	0
3	7023	91	0
3	7106	92	0
3	7189	93	0
3	7272	94	0
3	7355	95	0
3	7438	96	0
3	7521	97	0
3	7604	98	0
3	7687	99	0
3	7770	100	0
3	7853	101	0
3	7936	102	0
3	8019	103	0
3	8102	104	0
3	8185	105	0
3	8268	106	0
3	8351	107	0
3	8434	108	0
3	8517	109	0
3	8600	110	0
3	8683	111	0
3	8766	112	0
3	8849	113	0
3	8932	114	0
3	9015	115	0
3	9098	116	0
3	9181	117	0
3	9264	118	0
3	9347	119	0
3	9430	120	0
3	9513	121	0
3	9596	122	0
3	9679	123	0
3	9763	124	2.8344372912543
3	9846	125	1.9878715166124
3	9929	126	2.0155056120129
3	10012	127	2.5241973828524
3	10095	128	2.7927255757386
3	10178	129	0.56774439894129
3	10261	130	0.8726446875371
3	10344	131	-1.129483042052
2	88	2	2.1767797465436
2	156	3	4.2875128219603
2	224	4	6.2147287745029
2	292	5	7.9483301583678
2	360	6	10.044185102801
2	428	7	11.757266673027
2	496	8	13.072675233926
2	564	9	12.619122394114
2	632	10	13.254517804817
2	700	11	12.954654455404
2	768	12	12.921158827362
2	836	13	13.313427437665
2	904	14	13.233619185034
2	972	15	13.443698092117
2	1040	16	12.552340497365
2	1108	17	13.804930536412
2	1176	18	12.444505853914
2	1244	19	13.481015558224
2	1312	20	13.314837718019
2	1380	21	13.173502332517
2	1448	22	12.702412449857
2	1516	23	12.671746910303
2	1584	24	13.096657617702
2	1652	25	13.170034242896
2	1735	26	13.037933154367
2	1818	27	13.300822810256
2	1901	28	12.501605050159
2	1975	29	12.635881846757
2	2049	30	13.783445911934
2	2123	31	13.383905757554
2	2197	32	13.759306054548
2	2271	33	12.917742185164
2	2345	34	13.859672401319
2	2419	35	13.337637693956
2	2493	36	12.641070235739
2	2567	37	12.454267268521
2	2641	38	12.722764864666
2	2715	39	13.679473833865
2	2789	40	12.584981782115
2	2872	41	12.584869123399
2	2955	42	12.422072485657
2	3038	43	13.179587939973
2	3121	44	12.691262154244
2	3204	45	12.688633871251
2	3287	46	13.197780955802
2	3370	47	13.109283779268
2	3453	48	12.719206236522
2	3536	49	12.871680699508
2	3619	50	13.712588364361
2	3702	51	12.809051022618
2	3785	52	12.930118474513
2	3868	53	13.01697031314
2	3951	54	13.674970071749
2	4034	55	13.083940157653
2	4117	56	12.472996622077
2	4200	57	12.752076569349
2	4283	58	13.107227507732
2	4366	59	13.73113859036
2	4449	60	13.268007088322
2	4532	61	13.179599365904
2	4615	62	13.493166582878
2	4698	63	13.610501483185
2	4781	64	12.728649470243
2	4864	65	12.784622733118
2	4947	66	13.205774496063
2	5030	67	13.565174464937
2	5113	68	13.03734907751
2	5196	69	13.687172740102
2	5279	70	13.861815302968
2	5362	71	13.403788493816
2	5445	72	12.963546748725
2	5528	73	13.665487704319
2	5612	74	7.6654877043189
2	5695	75	1.6654877043189
2	5778	76	0
2	5861	77	0
2	5944	78	0
2	6027	79	0
2	6110	80	0
2	6193	81	0
2	6276	82	0
2	6359	83	0
2	6442	84	0
2	6525	85	0
2	6608	86	0
2	6691	87	0
2	6774	88	0
2	6857	89	0
2	6940	90	0
2	7023	91	0
2	7106	92	0
2	7189	93	0
2	7272	94	0
2	7355	95	0
2	7438	96	0
2	7521	97	0
2	7604	98	0
2	7687	99	0
2	7770	100	0
2	7853	101	0
2	7936	102	0
2	8019	103	0
2	8102	104	0
2	8185	105	0
2	8268	106	0
2	8351	107	0
2	8434	108	0
2	8517	109	0
2	8600	110	0
2	8683	111	0
2	8766	112	0
2	8849	113	0
2	8932	114	0
2	9015	115	0
2	9098	116	0
2	9181	117	0
2	9264	118	0
2	9347	119	0
2	9430	120	0
2	9513	121	0
2	9596	122	0
2	9679	123	0
2	9763	124	2.8344372912543
2	9846	125	4.8223088078666
2	9929	126	6.8378144198796
2	10012	127	9.362011802732
2	10095	128	12.154737378471
2	10178	129	12.722481777412
2	10261	130	13.595126464949
2	10344	131	12.465643422897
1	30	1	26.65
1	88	2	26.65
1	156	3	26.65
1	224	4	26.65
1	292	5	26.65
1	360	6	26.65
1	428	7	26.65
1	496	8	26.65
1	564	9	26.65
1	632	10	26.65
1	700	11	26.65
1	768	12	26.65
1	836	13	26.65
1	904	14	26.65
1	972	15	26.65
1	1040	16	26.65
1	1108	17	26.65
1	1176	18	26.65
1	1244	19	26.65
1	1312	20	26.65
1	1380	21	26.65
1	1448	22	26.65
1	1516	23	26.65
1	1584	24	26.65
1	1652	25	26.65
1	1735	26	26.65
1	1818	27	26.65
1	1901	28	26.65
1	1975	29	26.65
1	2049	30	26.65
1	2123	31	26.65
1	2197	32	26.65
1	2271	33	26.65
1	2345	34	26.65
1	2419	35	26.65
1	2493	36	26.65
1	2567	37	26.65
1	2641	38	26.65
1	2715	39	26.65
1	2789	40	26.65
1	2872	41	26.65
1	2955	42	26.65
1	3038	43	26.65
1	3121	44	26.65
1	3204	45	26.65
1	3287	46	26.65
1	3370	47	26.65
1	3453	48	26.65
1	3536	49	26.65
1	3619	50	26.65
1	3702	51	26.65
1	3785	52	26.65
1	3868	53	26.65
1	3951	54	26.65
1	4034	55	26.65
1	4117	56	26.65
1	4200	57	26.65
1	4283	58	26.65
1	4366	59	26.65
1	4449	60	26.65
1	4532	61	26.65
1	4615	62	26.65
1	4698	63	26.65
1	4781	64	26.65
1	4864	65	26.65
1	4947	66	26.65
1	5030	67	26.65
1	5113	68	26.65
1	5196	69	26.65
1	5279	70	26.65
1	5362	71	26.65
1	5445	72	26.65
1	5528	73	26.65
1	5612	74	26.65
1	5695	75	26.65
1	5778	76	26.65
1	5861	77	26.65
1	5944	78	26.65
1	6027	79	26.65
1	6110	80	26.65
1	6193	81	26.65
1	6276	82	26.65
1	6359	83	26.65
1	6442	84	26.65
1	6525	85	26.65
1	6608	86	26.65
1	6691	87	26.65
1	6774	88	26.65
1	6857	89	26.65
1	6940	90	26.65
1	7023	91	26.65
1	7106	92	26.65
1	7189	93	26.65
1	7272	94	26.65
1	7355	95	26.65
1	7438	96	26.65
1	7521	97	26.65
1	7604	98	26.65
1	7687	99	26.65
1	7770	100	26.65
1	7853	101	26.65
1	7936	102	26.65
1	8019	103	26.65
1	8102	104	26.65
1	8185	105	26.65
1	8268	106	26.65
1	8351	107	26.65
1	8434	108	26.65
1	8517	109	26.65
1	8600	110	26.65
1	8683	111	26.65
1	8766	112	26.65
1	8849	113	26.65
1	8932	114	26.65
1	9015	115	26.65
1	9098	116	26.65
1	9181	117	26.65
1	9264	118	26.65
1	9347	119	26.65
1	9430	120	26.65
1	9513	121	26.65
1	9596	122	26.65
1	9679	123	26.65
1	9763	124	26.65
1	9846	125	26.65
1	9929	126	26.65
1	10012	127	26.65
1	10095	128	26.65
1	10178	129	26.65
1	10261	130	26.65
1	10344	131	26.65
0	30	1	30.1
0	88	2	30.1
0	156	3	32.276779746544
0	224	4	36.564292568504
0	292	5	42.779021343007
0	360	6	50.727351501375
0	428	7	60.771536604175
0	496	8	72.528803277202
0	564	9	85.601478511128
0	632	10	98.220600905241
0	700	11	111.47511871006
0	768	12	124.42977316546
0	836	13	137.35093199282
0	904	14	150.66435943049
0	972	15	163.89797861552
0	1040	16	177.34167670764
0	1108	17	189.89401720501
0	1176	18	203.69894774142
0	1244	19	216.14345359533
0	1312	20	229.62446915356
0	1380	21	242.93930687157
0	1448	22	256.11280920409
0	1516	23	268.81522165395
0	1584	24	281.48696856425
0	1652	25	294.58362618195
0	1735	26	307.75366042485
0	1818	27	320.79159357922
0	1901	28	334.09241638947
0	1975	29	346.59402143963
0	2049	30	359.22990328639
0	2123	31	373.01334919832
0	2197	32	386.39725495588
0	2271	33	400.15656101042
0	2345	34	413.07430319559
0	2419	35	426.93397559691
0	2493	36	440.27161329086
0	2567	37	452.9126835266
0	2641	38	465.36695079512
0	2715	39	478.08971565979
0	2789	40	491.76918949366
0	2872	41	504.35417127577
0	2955	42	516.93904039917
0	3038	43	529.36111288483
0	3121	44	542.5407008248
0	3204	45	555.23196297904
0	3287	46	567.9205968503
0	3370	47	581.1183778061
0	3453	48	594.22766158537
0	3536	49	606.94686782189
0	3619	50	619.81854852139
0	3702	51	633.53113688576
0	3785	52	646.34018790837
0	3868	53	659.27030638289
0	3951	54	672.28727669603
0	4034	55	685.96224676778
0	4117	56	699.04618692543
0	4200	57	711.51918354751
0	4283	58	724.27126011685
0	4366	59	737.37848762459
0	4449	60	751.10962621495
0	4532	61	764.37763330327
0	4615	62	777.55723266917
0	4698	63	791.05039925205
0	4781	64	804.66090073524
0	4864	65	817.38955020548
0	4947	66	830.1741729386
0	5030	67	843.37994743466
0	5113	68	856.9451218996
0	5196	69	869.98247097711
0	5279	70	883.66964371721
0	5362	71	897.53145902018
0	5445	72	910.93524751399
0	5528	73	923.89879426272
0	5612	74	937.56428196703
0	5695	75	945.22976967135
0	5778	76	946.89525737567
0	5861	77	946.89525737567
0	5944	78	946.89525737567
0	6027	79	946.89525737567
0	6110	80	946.89525737567
0	6193	81	946.89525737567
0	6276	82	946.89525737567
0	6359	83	946.89525737567
0	6442	84	946.89525737567
0	6525	85	946.89525737567
0	6608	86	946.89525737567
0	6691	87	946.89525737567
0	6774	88	946.89525737567
0	6857	89	946.89525737567
0	6940	90	946.89525737567
0	7023	91	946.89525737567
0	7106	92	946.89525737567
0	7189	93	946.89525737567
0	7272	94	946.89525737567
0	7355	95	946.89525737567
0	7438	96	946.89525737567
0	7521	97	946.89525737567
0	7604	98	946.89525737567
0	7687	99	946.89525737567
0	7770	100	946.89525737567
0	7853	101	946.89525737567
0	7936	102	946.89525737567
0	8019	103	946.89525737567
0	8102	104	946.89525737567
0	8185	105	946.89525737567
0	8268	106	946.89525737567
0	8351	107	946.89525737567
0	8434	108	946.89525737567
0	8517	109	946.89525737567
0	8600	110	946.89525737567
0	8683	111	946.89525737567
0	8766	112	946.89525737567
0	8849	113	946.89525737567
0	8932	114	946.89525737567
0	9015	115	946.89525737567
0	9098	116	946.89525737567
0	9181	117	946.89525737567
0	9264	118	946.89525737567
0	9347	119	946.89525737567
0	9430	120	946.89525737567
0	9513	121	946.89525737567
0	9596	122	946.89525737567
0	9679	123	946.89525737567
0	9763	124	946.89525737567
0	9846	125	949.72969466693
0	9929	126	954.55200347479
0	10012	127	961.38981789467
0	10095	128	970.75182969741
0	10178	129	982.90656707588
0	10261	130	995.62904885329
0	10344	131	1009.2241753182

